14
Butane
 C    1.37186865    1.05580896    3.45290470
 H    0.99389687    0.22153219    4.00609509
 H    2.41053448    0.90476699    3.24491524
 H    1.24959090    1.94988795    4.02785767
 C    0.59695173    1.18712599    2.12857106
 H    -0.44171410   1.33816797    2.33656052
 H    0.97492351    2.02140276     1.57538067
 C    0.77294026    -0.09967928    1.30106865
 H    1.81160609    -0.25072125    1.09307919
 H    0.39496848    -0.93395605    1.85425904
 C    -0.00197666   0.03163775     -0.02326499
 H    0.12032462    -0.86243011    -0.59823025
 H    -1.04064660   0.18265150     0.18472445
 H    0.37597595    0.86593162     -0.57644269
